<?xml version="1.0" encoding="UTF-8"?>

<!-- generated on 2022-07-26 19:35:38 by Eclipse SUMO netedit Version 1.13.0
<configuration xmlns:xsi="http://www.w3.org/2001/XMLSchema-instance" xsi:noNamespaceSchemaLocation="http://sumo.dlr.de/xsd/netconvertConfiguration.xsd">

    <input>
        <sumo-net-file value="osm.net.xml"/>
    </input>

    <output>
        <output-file value="osm.net.xml"/>
        <output.street-names value="true"/>
    </output>

    <processing>
        <geometry.min-radius.fix.railways value="false"/>
        <geometry.max-grade.fix value="false"/>
        <offset.disable-normalization value="true"/>
        <lefthand value="true"/>
    </processing>

    <junctions>
        <no-turnarounds value="true"/>
        <junctions.corner-detail value="5"/>
        <junctions.limit-turn-speed value="5.5"/>
        <rectangular-lane-cut value="false"/>
    </junctions>

    <pedestrian>
        <walkingareas value="false"/>
    </pedestrian>

    <report>
        <aggregate-warnings value="5"/>
    </report>

</configuration>
-->

<net version="1.9" junctionCornerDetail="5" lefthand="true" limitTurnSpeed="5.50" xmlns:xsi="http://www.w3.org/2001/XMLSchema-instance" xsi:noNamespaceSchemaLocation="http://sumo.dlr.de/xsd/net_file.xsd">

    <location netOffset="-785100.99,-1418829.05" convBoundary="0.00,0.00,6637.93,9770.76" origBoundary="77.579883,12.816136,77.690903,12.924490" projParameter="+proj=utm +zone=43 +ellps=WGS84 +datum=WGS84 +units=m +no_defs"/>

    <type id="highway.bridleway" priority="1" numLanes="1" speed="2.78" allow="pedestrian" oneway="1" width="2.00"/>
    <type id="highway.bus_guideway" priority="1" numLanes="1" speed="27.78" allow="bus" oneway="1"/>
    <type id="highway.cycleway" priority="1" numLanes="1" speed="8.33" allow="bicycle" oneway="0" width="1.00"/>
    <type id="highway.footway" priority="1" numLanes="1" speed="2.78" allow="pedestrian" oneway="1" width="2.00"/>
    <type id="highway.ford" priority="1" numLanes="1" speed="2.78" allow="army" oneway="0"/>
    <type id="highway.living_street" priority="2" numLanes="1" speed="2.78" disallow="tram rail_urban rail rail_electric rail_fast ship" oneway="0"/>
    <type id="highway.motorway" priority="14" numLanes="2" speed="39.44" allow="private emergency authority army vip passenger hov taxi bus coach delivery truck trailer motorcycle evehicle custom1 custom2" oneway="1"/>
    <type id="highway.motorway_link" priority="9" numLanes="1" speed="22.22" allow="private emergency authority army vip passenger hov taxi bus coach delivery truck trailer motorcycle evehicle custom1 custom2" oneway="1"/>
    <type id="highway.path" priority="1" numLanes="1" speed="2.78" allow="pedestrian bicycle" oneway="0" width="2.00"/>
    <type id="highway.pedestrian" priority="1" numLanes="1" speed="2.78" allow="pedestrian" oneway="1" width="2.00"/>
    <type id="highway.primary" priority="12" numLanes="2" speed="27.78" disallow="tram rail_urban rail rail_electric rail_fast ship" oneway="0"/>
    <type id="highway.primary_link" priority="7" numLanes="1" speed="22.22" disallow="tram rail_urban rail rail_electric rail_fast ship" oneway="0"/>
    <type id="highway.raceway" priority="15" numLanes="2" speed="83.33" allow="vip" oneway="0"/>
    <type id="highway.residential" priority="3" numLanes="1" speed="13.89" disallow="tram rail_urban rail rail_electric rail_fast ship" oneway="0"/>
    <type id="highway.secondary" priority="11" numLanes="1" speed="27.78" disallow="tram rail_urban rail rail_electric rail_fast ship" oneway="0"/>
    <type id="highway.secondary_link" priority="6" numLanes="1" speed="22.22" disallow="tram rail_urban rail rail_electric rail_fast ship" oneway="0"/>
    <type id="highway.service" priority="1" numLanes="1" speed="5.56" allow="pedestrian delivery bicycle" oneway="0"/>
    <type id="highway.stairs" priority="1" numLanes="1" speed="1.39" allow="pedestrian" oneway="1" width="2.00"/>
    <type id="highway.step" priority="1" numLanes="1" speed="1.39" allow="pedestrian" oneway="1" width="2.00"/>
    <type id="highway.steps" priority="1" numLanes="1" speed="1.39" allow="pedestrian" oneway="1" width="2.00"/>
    <type id="highway.tertiary" priority="10" numLanes="1" speed="22.22" disallow="tram rail_urban rail rail_electric rail_fast ship" oneway="0"/>
    <type id="highway.tertiary_link" priority="5" numLanes="1" speed="22.22" disallow="tram rail_urban rail rail_electric rail_fast ship" oneway="0"/>
    <type id="highway.track" priority="1" numLanes="1" speed="5.56" allow="pedestrian motorcycle moped bicycle" oneway="0"/>
    <type id="highway.trunk" priority="13" numLanes="2" speed="27.78" disallow="pedestrian bicycle tram rail_urban rail rail_electric rail_fast ship" oneway="0"/>
    <type id="highway.trunk_link" priority="8" numLanes="1" speed="22.22" disallow="pedestrian bicycle tram rail_urban rail rail_electric rail_fast ship" oneway="0"/>
    <type id="highway.unclassified" priority="4" numLanes="1" speed="13.89" disallow="tram rail_urban rail rail_electric rail_fast ship" oneway="0"/>
    <type id="highway.unsurfaced" priority="1" numLanes="1" speed="8.33" disallow="tram rail_urban rail rail_electric rail_fast ship" oneway="0"/>
    <type id="railway.highspeed" priority="21" numLanes="1" speed="69.44" allow="rail_fast" oneway="1"/>
    <type id="railway.light_rail" priority="19" numLanes="1" speed="27.78" allow="rail_urban" oneway="1"/>
    <type id="railway.preserved" priority="16" numLanes="1" speed="27.78" allow="rail" oneway="1"/>
    <type id="railway.rail" priority="20" numLanes="1" speed="44.44" allow="rail" oneway="1"/>
    <type id="railway.subway" priority="18" numLanes="1" speed="27.78" allow="rail_urban" oneway="1"/>
    <type id="railway.tram" priority="17" numLanes="1" speed="13.89" allow="tram" oneway="1"/>

    <edge id=":103269863#1-AddedOnRampNode_0" function="internal">
        <lane id=":103269863#1-AddedOnRampNode_0_0" index="0" allow="private emergency authority army vip passenger hov taxi bus coach delivery truck trailer motorcycle evehicle custom1 custom2" speed="22.22" length="8.00" shape="4383.10,3498.60 4378.13,3504.87"/>
        <lane id=":103269863#1-AddedOnRampNode_0_1" index="1" allow="private emergency authority army vip passenger hov taxi bus coach delivery truck trailer motorcycle evehicle custom1 custom2" speed="22.22" length="8.00" shape="4385.61,3500.59 4380.64,3506.86"/>
    </edge>
    <edge id=":1192792151_0" function="internal">
        <lane id=":1192792151_0_0" index="0" disallow="tram rail_urban rail rail_electric rail_fast ship" speed="3.65" length="4.67" shape="5225.14,2953.69 5224.88,2952.27 5224.31,2951.58 5223.41,2951.63 5222.20,2952.41"/>
    </edge>
    <edge id=":1387747087_0" function="internal">
        <lane id=":1387747087_0_0" index="0" disallow="tram rail_urban rail rail_electric rail_fast ship" speed="3.65" length="4.67" shape="6107.83,660.60 6107.41,659.22 6106.76,658.61 6105.88,658.76 6104.77,659.68"/>
    </edge>
    <edge id=":160512744#0-AddedOffRampNode_0" function="internal">
        <lane id=":160512744#0-AddedOffRampNode_0_0" index="0" allow="private emergency authority army vip passenger hov taxi bus coach delivery truck trailer motorcycle evehicle custom1 custom2" speed="22.22" length="8.92" shape="4720.72,3091.10 4723.17,3089.60 4725.71,3089.93 4728.25,3090.26 4730.69,3088.76"/>
        <lane id=":160512744#0-AddedOffRampNode_0_1" index="1" allow="private emergency authority army vip passenger hov taxi bus coach delivery truck trailer motorcycle evehicle custom1 custom2" speed="22.22" length="8.92" shape="4720.72,3091.10 4722.63,3089.47 4724.45,3088.94 4726.26,3088.41 4728.18,3086.78"/>
        <lane id=":160512744#0-AddedOffRampNode_0_2" index="2" allow="private emergency authority army vip passenger hov taxi bus coach delivery truck trailer motorcycle evehicle custom1 custom2" speed="22.22" length="8.92" shape="4720.72,3091.10 4725.66,3084.81"/>
        <lane id=":160512744#0-AddedOffRampNode_0_3" index="3" allow="private emergency authority army vip passenger hov taxi bus coach delivery truck trailer motorcycle evehicle custom1 custom2" speed="22.22" length="8.92" shape="4718.20,3089.12 4723.14,3082.83"/>
    </edge>
    <edge id=":1614219932_0" function="internal">
        <lane id=":1614219932_0_0" index="0" disallow="tram rail_urban rail rail_electric rail_fast ship" speed="11.07" length="3.35" shape="4785.50,2943.30 4785.61,2944.28 4785.56,2944.95 4785.37,2945.62 4785.10,2946.58"/>
    </edge>
    <edge id=":1614219932_1" function="internal">
        <lane id=":1614219932_1_0" index="0" disallow="tram rail_urban rail rail_electric rail_fast ship" speed="3.65" length="1.44" shape="4788.20,2947.38 4787.72,2946.02"/>
    </edge>
    <edge id=":1614219932_2" function="internal">
        <lane id=":1614219932_2_0" index="0" disallow="tram rail_urban rail rail_electric rail_fast ship" speed="3.65" length="3.23" shape="4787.72,2946.02 4787.05,2945.43 4786.17,2945.62 4785.10,2946.58"/>
    </edge>
    <edge id=":1698688817_0" function="internal">
        <lane id=":1698688817_0_0" index="0" disallow="tram rail_urban rail rail_electric rail_fast ship" speed="9.60" length="13.19" shape="4069.39,3868.35 4067.08,3870.52 4064.32,3871.85 4061.10,3872.35 4057.42,3872.00"/>
    </edge>
    <edge id=":1698688817_1" function="internal">
        <lane id=":1698688817_1_0" index="0" disallow="tram rail_urban rail rail_electric rail_fast ship" speed="3.65" length="1.44" shape="4056.81,3875.14 4058.14,3874.59"/>
    </edge>
    <edge id=":1698688817_3" function="internal">
        <lane id=":1698688817_3_0" index="0" disallow="tram rail_urban rail rail_electric rail_fast ship" speed="3.65" length="3.23" shape="4058.14,3874.59 4058.68,3873.88 4058.44,3873.02 4057.42,3872.00"/>
    </edge>
    <edge id=":1698688817_2" function="internal">
        <lane id=":1698688817_2_0" index="0" disallow="tram rail_urban rail rail_electric rail_fast ship" speed="5.52" length="11.10" shape="4059.73,3867.34 4062.34,3870.09 4062.83,3871.78 4061.19,3872.42 4057.42,3872.00"/>
    </edge>
    <edge id=":1698688821_0" function="internal">
        <lane id=":1698688821_0_0" index="0" disallow="tram rail_urban rail rail_electric rail_fast ship" speed="3.65" length="4.67" shape="4092.37,3902.35 4092.25,3903.78 4092.63,3904.59 4093.50,3904.78 4094.87,3904.33"/>
    </edge>
    <edge id=":1724275529_0" function="internal">
        <lane id=":1724275529_0_0" index="0" disallow="tram rail_urban rail rail_electric rail_fast ship" speed="3.65" length="4.67" shape="3674.67,3459.54 3675.81,3458.65 3676.16,3457.83 3675.70,3457.06 3674.45,3456.34"/>
    </edge>
    <edge id=":1725691293_0" function="internal">
        <lane id=":1725691293_0_0" index="0" allow="private emergency authority army vip passenger hov taxi bus coach delivery truck trailer motorcycle evehicle custom1 custom2" speed="22.22" length="0.29" shape="4726.45,2866.44 4726.18,2866.29"/>
        <lane id=":1725691293_0_1" index="1" allow="private emergency authority army vip passenger hov taxi bus coach delivery truck trailer motorcycle evehicle custom1 custom2" speed="22.22" length="0.29" shape="4724.91,2869.24 4724.67,2869.11"/>
    </edge>
    <edge id=":1726946443_0" function="internal">
        <lane id=":1726946443_0_0" index="0" disallow="tram rail_urban rail rail_electric rail_fast ship" speed="3.65" length="4.67" shape="4363.77,3689.02 4365.00,3688.26 4365.43,3687.48 4365.06,3686.66 4363.89,3685.82"/>
    </edge>
    <edge id=":2387016574_0" function="internal">
        <lane id=":2387016574_0_0" index="0" disallow="tram rail_urban rail rail_electric rail_fast ship" speed="3.65" length="4.67" shape="4304.32,2558.30 4303.49,2557.12 4302.68,2556.74 4301.89,2557.16 4301.12,2558.38"/>
    </edge>
    <edge id=":2387016575_0" function="internal">
        <lane id=":2387016575_0_0" index="0" disallow="tram rail_urban rail rail_electric rail_fast ship" speed="3.65" length="4.67" shape="4305.08,2701.17 4305.91,2702.35 4306.72,2702.73 4307.51,2702.31 4308.28,2701.09"/>
    </edge>
    <edge id=":2389189944_0" function="internal">
        <lane id=":2389189944_0_0" index="0" disallow="tram rail_urban rail rail_electric rail_fast ship" speed="7.77" length="10.41" shape="3161.31,3589.36 3160.45,3592.33 3159.10,3594.52 3157.26,3595.94 3154.92,3596.60"/>
    </edge>
    <edge id=":2389189944_1" function="internal">
        <lane id=":2389189944_1_0" index="0" disallow="tram rail_urban rail rail_electric rail_fast ship" speed="7.66" length="15.11" shape="3161.31,3589.36 3161.15,3593.64 3162.46,3596.64 3165.25,3598.35 3169.51,3598.79"/>
    </edge>
    <edge id=":2389189944_2" function="internal">
        <lane id=":2389189944_2_0" index="0" disallow="tram rail_urban rail rail_electric rail_fast ship" speed="3.65" length="4.67" shape="3161.31,3589.36 3161.88,3590.69 3162.59,3591.22 3163.45,3590.97 3164.45,3589.94"/>
    </edge>
    <edge id=":2389189944_3" function="internal">
        <lane id=":2389189944_3_0" index="0" disallow="tram rail_urban rail rail_electric rail_fast ship" speed="6.08" length="9.06" shape="3169.38,3595.59 3166.82,3595.33 3165.15,3594.30 3164.36,3592.50 3164.45,3589.94"/>
    </edge>
    <edge id=":2389189944_4" function="internal">
        <lane id=":2389189944_4_0" index="0" disallow="tram rail_urban rail rail_electric rail_fast ship" speed="22.22" length="14.49" shape="3169.38,3595.59 3154.92,3596.60"/>
    </edge>
    <edge id=":2389189944_5" function="internal">
        <lane id=":2389189944_5_0" index="0" disallow="tram rail_urban rail rail_electric rail_fast ship" speed="3.65" length="1.44" shape="3169.38,3595.59 3168.21,3596.44"/>
    </edge>
    <edge id=":2389189944_9" function="internal">
        <lane id=":2389189944_9_0" index="0" disallow="tram rail_urban rail rail_electric rail_fast ship" speed="3.65" length="3.23" shape="3168.21,3596.44 3167.84,3597.26 3168.28,3598.04 3169.51,3598.79"/>
    </edge>
    <edge id=":2389189944_6" function="internal">
        <lane id=":2389189944_6_0" index="0" disallow="tram rail_urban rail rail_electric rail_fast ship" speed="22.22" length="14.29" shape="3155.25,3599.78 3169.51,3598.79"/>
    </edge>
    <edge id=":2389189944_7" function="internal">
        <lane id=":2389189944_7_0" index="0" disallow="tram rail_urban rail rail_electric rail_fast ship" speed="9.09" length="3.53" shape="3155.25,3599.78 3158.66,3598.87"/>
    </edge>
    <edge id=":2389189944_8" function="internal">
        <lane id=":2389189944_8_0" index="0" disallow="tram rail_urban rail rail_electric rail_fast ship" speed="3.65" length="1.44" shape="3155.25,3599.78 3156.36,3598.86"/>
    </edge>
    <edge id=":2389189944_10" function="internal">
        <lane id=":2389189944_10_0" index="0" disallow="tram rail_urban rail rail_electric rail_fast ship" speed="9.09" length="11.03" shape="3158.66,3598.87 3161.33,3596.92 3163.26,3593.95 3164.45,3589.94"/>
    </edge>
    <edge id=":2389189944_11" function="internal">
        <lane id=":2389189944_11_0" index="0" disallow="tram rail_urban rail rail_electric rail_fast ship" speed="3.65" length="3.23" shape="3156.36,3598.86 3156.68,3598.02 3156.20,3597.27 3154.92,3596.60"/>
    </edge>
    <edge id=":2389189951_0" function="internal">
        <lane id=":2389189951_0_0" index="0" disallow="tram rail_urban rail rail_electric rail_fast ship" speed="3.65" length="4.67" shape="3215.35,3447.22 3214.42,3446.12 3213.58,3445.81 3212.83,3446.30 3212.17,3447.58"/>
    </edge>
    <edge id=":2389189956_0" function="internal">
        <lane id=":2389189956_0_0" index="0" disallow="tram rail_urban rail rail_electric rail_fast ship" speed="6.53" length="8.17" shape="3164.01,3462.56 3161.85,3462.12 3160.27,3461.10 3159.25,3459.51 3158.79,3457.36"/>
    </edge>
    <edge id=":2389189956_1" function="internal">
        <lane id=":2389189956_1_0" index="0" disallow="tram rail_urban rail rail_electric rail_fast ship" speed="9.87" length="12.14" shape="3164.01,3462.56 3160.66,3462.65 3157.74,3463.40 3155.25,3464.81 3153.19,3466.88"/>
    </edge>
    <edge id=":2389189956_2" function="internal">
        <lane id=":2389189956_2_0" index="0" disallow="tram rail_urban rail rail_electric rail_fast ship" speed="3.65" length="4.67" shape="3164.01,3462.56 3162.76,3463.28 3162.30,3464.05 3162.65,3464.88 3163.79,3465.76"/>
    </edge>
    <edge id=":2389189956_3" function="internal">
        <lane id=":2389189956_3_0" index="0" disallow="tram rail_urban rail rail_electric rail_fast ship" speed="8.56" length="9.00" shape="3155.72,3468.83 3157.22,3467.35 3159.07,3466.34 3161.26,3465.81 3163.79,3465.76"/>
    </edge>
    <edge id=":2389189956_4" function="internal">
        <lane id=":2389189956_4_0" index="0" disallow="tram rail_urban rail rail_electric rail_fast ship" speed="12.21" length="12.22" shape="3155.72,3468.83 3157.54,3466.07 3158.53,3463.48 3158.89,3460.70 3158.79,3457.36"/>
    </edge>
    <edge id=":2389189956_5" function="internal">
        <lane id=":2389189956_5_0" index="0" disallow="tram rail_urban rail rail_electric rail_fast ship" speed="3.65" length="1.44" shape="3155.72,3468.83 3155.82,3467.39"/>
    </edge>
    <edge id=":2389189956_9" function="internal">
        <lane id=":2389189956_9_0" index="0" disallow="tram rail_urban rail rail_electric rail_fast ship" speed="3.65" length="3.23" shape="3155.82,3467.39 3155.43,3466.59 3154.55,3466.42 3153.19,3466.88"/>
    </edge>
    <edge id=":2389189956_6" function="internal">
        <lane id=":2389189956_6_0" index="0" disallow="tram rail_urban rail rail_electric rail_fast ship" speed="11.07" length="9.98" shape="3155.60,3457.58 3155.78,3460.52 3155.62,3462.60 3154.85,3464.49 3153.19,3466.88"/>
    </edge>
    <edge id=":2389189956_7" function="internal">
        <lane id=":2389189956_7_0" index="0" disallow="tram rail_urban rail rail_electric rail_fast ship" speed="8.04" length="3.46" shape="3155.60,3457.58 3156.31,3460.97"/>
    </edge>
    <edge id=":2389189956_8" function="internal">
        <lane id=":2389189956_8_0" index="0" disallow="tram rail_urban rail rail_electric rail_fast ship" speed="3.65" length="1.44" shape="3155.60,3457.58 3156.48,3458.72"/>
    </edge>
    <edge id=":2389189956_10" function="internal">
        <lane id=":2389189956_10_0" index="0" disallow="tram rail_urban rail rail_electric rail_fast ship" speed="8.04" length="9.38" shape="3156.31,3460.97 3157.91,3463.46 3160.41,3465.05 3163.79,3465.76"/>
    </edge>
    <edge id=":2389189956_11" function="internal">
        <lane id=":2389189956_11_0" index="0" disallow="tram rail_urban rail rail_electric rail_fast ship" speed="3.65" length="3.23" shape="3156.48,3458.72 3157.31,3459.07 3158.08,3458.61 3158.79,3457.36"/>
    </edge>
    <edge id=":2389189958_0" function="internal">
        <lane id=":2389189958_0_0" index="0" disallow="tram rail_urban rail rail_electric rail_fast ship" speed="3.65" length="4.67" shape="3109.76,3493.80 3108.97,3492.59 3108.17,3492.19 3107.37,3492.59 3106.56,3493.78"/>
    </edge>
    <edge id=":2389189961_0" function="internal">
        <lane id=":2389189961_0_0" index="0" disallow="tram rail_urban rail rail_electric rail_fast ship" speed="6.77" length="9.29" shape="3187.33,3458.65 3186.62,3461.00 3185.29,3462.62 3183.33,3463.52 3180.75,3463.69"/>
    </edge>
    <edge id=":2389189961_1" function="internal">
        <lane id=":2389189961_1_0" index="0" disallow="tram rail_urban rail rail_electric rail_fast ship" speed="13.89" length="14.32" shape="3187.33,3458.65 3185.64,3472.87"/>
    </edge>
    <edge id=":2389189961_2" function="internal">
        <lane id=":2389189961_2_0" index="0" disallow="tram rail_urban rail rail_electric rail_fast ship" speed="3.65" length="1.44" shape="3187.33,3458.65 3187.95,3459.95"/>
    </edge>
    <edge id=":2389189961_9" function="internal">
        <lane id=":2389189961_9_0" index="0" disallow="tram rail_urban rail rail_electric rail_fast ship" speed="3.65" length="3.23" shape="3187.95,3459.95 3188.68,3460.46 3189.53,3460.18 3190.50,3459.11"/>
    </edge>
    <edge id=":2389189961_3" function="internal">
        <lane id=":2389189961_3_0" index="0" disallow="tram rail_urban rail rail_electric rail_fast ship" speed="13.89" length="14.16" shape="3188.83,3473.17 3190.50,3459.11"/>
    </edge>
    <edge id=":2389189961_4" function="internal">
        <lane id=":2389189961_4_0" index="0" disallow="tram rail_urban rail rail_electric rail_fast ship" speed="7.96" length="3.93" shape="3188.83,3473.17 3188.63,3469.24"/>
    </edge>
    <edge id=":2389189961_5" function="internal">
        <lane id=":2389189961_5_0" index="0" disallow="tram rail_urban rail rail_electric rail_fast ship" speed="3.65" length="1.44" shape="3188.83,3473.17 3188.14,3471.90"/>
    </edge>
    <edge id=":2389189961_10" function="internal">
        <lane id=":2389189961_10_0" index="0" disallow="tram rail_urban rail rail_electric rail_fast ship" speed="7.96" length="10.36" shape="3188.63,3469.24 3187.22,3466.36 3184.59,3464.50 3180.75,3463.69"/>
    </edge>
    <edge id=":2389189961_11" function="internal">
        <lane id=":2389189961_11_0" index="0" disallow="tram rail_urban rail rail_electric rail_fast ship" speed="3.65" length="3.23" shape="3188.14,3471.90 3187.38,3471.43 3186.55,3471.75 3185.64,3472.87"/>
    </edge>
    <edge id=":2389189961_6" function="internal">
        <lane id=":2389189961_6_0" index="0" disallow="tram rail_urban rail rail_electric rail_fast ship" speed="6.45" length="9.03" shape="3180.54,3466.88 3182.97,3467.40 3184.63,3468.57 3185.52,3470.39 3185.64,3472.87"/>
    </edge>
    <edge id=":2389189961_7" function="internal">
        <lane id=":2389189961_7_0" index="0" disallow="tram rail_urban rail rail_electric rail_fast ship" speed="8.23" length="14.17" shape="3180.54,3466.88 3184.44,3466.61 3187.40,3465.23 3189.42,3462.73 3190.50,3459.11"/>
    </edge>
    <edge id=":2389189961_8" function="internal">
        <lane id=":2389189961_8_0" index="0" disallow="tram rail_urban rail rail_electric rail_fast ship" speed="3.65" length="4.67" shape="3180.54,3466.88 3181.79,3466.16 3182.24,3465.39 3181.89,3464.56 3180.75,3463.69"/>
    </edge>
    <edge id=":2389189966_0" function="internal">
        <lane id=":2389189966_0_0" index="0" disallow="tram rail_urban rail rail_electric rail_fast ship" speed="3.65" length="4.67" shape="3122.23,3150.70 3121.34,3149.57 3120.51,3149.24 3119.75,3149.70 3119.05,3150.96"/>
    </edge>
    <edge id=":2389189971_0" function="internal">
        <lane id=":2389189971_0_0" index="0" disallow="tram rail_urban rail rail_electric rail_fast ship" speed="6.30" length="8.28" shape="3176.84,2911.75 3174.82,2912.86 3172.94,2913.08 3171.20,2912.42 3169.61,2910.88"/>
    </edge>
    <edge id=":2389189971_1" function="internal">
        <lane id=":2389189971_1_0" index="0" disallow="tram rail_urban rail rail_electric rail_fast ship" speed="13.44" length="12.52" shape="3176.84,2911.75 3174.21,2913.87 3172.22,2915.99 3170.73,2918.46 3169.58,2921.60"/>
    </edge>
    <edge id=":2389189971_2" function="internal">
        <lane id=":2389189971_2_0" index="0" disallow="tram rail_urban rail rail_electric rail_fast ship" speed="3.65" length="1.44" shape="3176.84,2911.75 3176.35,2913.10"/>
    </edge>
    <edge id=":2389189971_9" function="internal">
        <lane id=":2389189971_9_0" index="0" disallow="tram rail_urban rail rail_electric rail_fast ship" speed="3.65" length="3.23" shape="3176.35,2913.10 3176.51,2913.98 3177.31,2914.39 3178.75,2914.32"/>
    </edge>
    <edge id=":2389189971_3" function="internal">
        <lane id=":2389189971_3_0" index="0" disallow="tram rail_urban rail rail_electric rail_fast ship" speed="12.34" length="10.51" shape="3172.65,2922.49 3173.62,2919.61 3174.71,2917.72 3176.29,2916.18 3178.75,2914.32"/>
    </edge>
    <edge id=":2389189971_4" function="internal">
        <lane id=":2389189971_4_0" index="0" disallow="tram rail_urban rail rail_electric rail_fast ship" speed="10.30" length="3.05" shape="3172.65,2922.49 3173.06,2919.69 3173.03,2919.48"/>
    </edge>
    <edge id=":2389189971_5" function="internal">
        <lane id=":2389189971_5_0" index="0" disallow="tram rail_urban rail rail_electric rail_fast ship" speed="3.65" length="1.44" shape="3172.65,2922.49 3172.22,2921.12"/>
    </edge>
    <edge id=":2389189971_10" function="internal">
        <lane id=":2389189971_10_0" index="0" disallow="tram rail_urban rail rail_electric rail_fast ship" speed="10.30" length="9.41" shape="3173.03,2919.48 3172.69,2916.82 3171.54,2913.88 3169.61,2910.88"/>
    </edge>
    <edge id=":2389189971_11" function="internal">
        <lane id=":2389189971_11_0" index="0" disallow="tram rail_urban rail rail_electric rail_fast ship" speed="3.65" length="3.23" shape="3172.22,2921.12 3171.56,2920.51 3170.68,2920.67 3169.58,2921.60"/>
    </edge>
    <edge id=":2389189971_6" function="internal">
        <lane id=":2389189971_6_0" index="0" disallow="tram rail_urban rail rail_electric rail_fast ship" speed="8.91" length="9.18" shape="3167.25,2913.06 3168.70,2915.30 3169.57,2917.47 3169.86,2919.57 3169.58,2921.60"/>
    </edge>
    <edge id=":2389189971_7" function="internal">
        <lane id=":2389189971_7_0" index="0" disallow="tram rail_urban rail rail_electric rail_fast ship" speed="7.77" length="13.14" shape="3167.25,2913.06 3169.76,2915.48 3172.51,2916.49 3175.51,2916.11 3178.75,2914.32"/>
    </edge>
    <edge id=":2389189971_8" function="internal">
        <lane id=":2389189971_8_0" index="0" disallow="tram rail_urban rail rail_electric rail_fast ship" speed="3.66" length="4.69" shape="3167.25,2913.06 3168.65,2913.40 3169.52,2913.15 3169.83,2912.31 3169.61,2910.88"/>
    </edge>
    <edge id=":2389190028_0" function="internal">
        <lane id=":2389190028_0_0" index="0" disallow="tram rail_urban rail rail_electric rail_fast ship" speed="22.22" length="14.74" shape="3076.59,3398.27 3075.54,3412.98"/>
    </edge>
    <edge id=":2389190028_1" function="internal">
        <lane id=":2389190028_1_0" index="0" disallow="tram rail_urban rail rail_electric rail_fast ship" speed="9.29" length="3.69" shape="3076.59,3398.27 3076.90,3401.77 3076.98,3401.93"/>
    </edge>
    <edge id=":2389190028_2" function="internal">
        <lane id=":2389190028_2_0" index="0" disallow="tram rail_urban rail rail_electric rail_fast ship" speed="3.65" length="1.44" shape="3076.59,3398.27 3077.30,3399.53"/>
    </edge>
    <edge id=":2389190028_9" function="internal">
        <lane id=":2389190028_9_0" index="0" disallow="tram rail_urban rail rail_electric rail_fast ship" speed="9.29" length="11.20" shape="3076.98,3401.93 3078.40,3404.78 3081.07,3407.30 3084.91,3409.33"/>
    </edge>
    <edge id=":2389190028_10" function="internal">
        <lane id=":2389190028_10_0" index="0" disallow="tram rail_urban rail rail_electric rail_fast ship" speed="3.65" length="3.23" shape="3077.30,3399.53 3078.07,3399.99 3078.90,3399.65 3079.78,3398.51"/>
    </edge>
    <edge id=":2389190028_3" function="internal">
        <lane id=":2389190028_3_0" index="0" disallow="tram rail_urban rail rail_electric rail_fast ship" speed="8.00" length="10.83" shape="3086.11,3406.36 3083.20,3404.86 3081.17,3403.05 3080.03,3400.93 3079.78,3398.51"/>
    </edge>
    <edge id=":2389190028_4" function="internal">
        <lane id=":2389190028_4_0" index="0" disallow="tram rail_urban rail rail_electric rail_fast ship" speed="7.56" length="15.55" shape="3086.11,3406.36 3081.76,3405.29 3078.55,3406.04 3076.48,3408.60 3075.54,3412.98"/>
    </edge>
    <edge id=":2389190028_5" function="internal">
        <lane id=":2389190028_5_0" index="0" disallow="tram rail_urban rail rail_electric rail_fast ship" speed="3.65" length="4.67" shape="3086.11,3406.36 3084.70,3406.65 3084.03,3407.25 3084.10,3408.14 3084.91,3409.33"/>
    </edge>
    <edge id=":2389190028_6" function="internal">
        <lane id=":2389190028_6_0" index="0" disallow="tram rail_urban rail rail_electric rail_fast ship" speed="5.94" length="9.09" shape="3078.73,3413.20 3079.28,3410.64 3080.49,3409.14 3082.37,3408.70 3084.91,3409.33"/>
    </edge>
    <edge id=":2389190028_7" function="internal">
        <lane id=":2389190028_7_0" index="0" disallow="tram rail_urban rail rail_electric rail_fast ship" speed="22.22" length="14.73" shape="3078.73,3413.20 3079.78,3398.51"/>
    </edge>
    <edge id=":2389190028_8" function="internal">
        <lane id=":2389190028_8_0" index="0" disallow="tram rail_urban rail rail_electric rail_fast ship" speed="3.65" length="1.44" shape="3078.73,3413.20 3078.02,3411.95"/>
    </edge>
    <edge id=":2389190028_11" function="internal">
        <lane id=":2389190028_11_0" index="0" disallow="tram rail_urban rail rail_electric rail_fast ship" speed="3.65" length="3.23" shape="3078.02,3411.95 3077.25,3411.49 3076.42,3411.83 3075.54,3412.98"/>
    </edge>
    <edge id=":2389190037_0" function="internal">
        <lane id=":2389190037_0_0" index="0" disallow="tram rail_urban rail rail_electric rail_fast ship" speed="3.65" length="4.67" shape="4057.46,3846.22 4058.05,3847.54 4058.77,3848.07 4059.63,3847.81 4060.62,3846.76"/>
    </edge>
    <edge id=":2389190038_0" function="internal">
        <lane id=":2389190038_0_0" index="0" disallow="tram rail_urban rail rail_electric rail_fast ship" speed="5.50" length="10.89" shape="4142.81,3774.01 4140.65,3777.01 4139.08,3777.79 4138.09,3776.34 4137.70,3772.67"/>
    </edge>
    <edge id=":2389190038_1" function="internal">
        <lane id=":2389190038_1_0" index="0" disallow="tram rail_urban rail rail_electric rail_fast ship" speed="11.11" length="14.95" shape="4142.81,3774.01 4135.15,3786.85"/>
    </edge>
    <edge id=":2389190038_2" function="internal">
        <lane id=":2389190038_2_0" index="0" disallow="tram rail_urban rail rail_electric rail_fast ship" speed="3.65" length="4.67" shape="4142.81,3774.01 4142.88,3775.45 4143.36,3776.21 4144.25,3776.27 4145.55,3775.65"/>
    </edge>