<?xml version="1.0" encoding="UTF-8"?>

<!-- generated on 2022-07-26 21:41:17 by Eclipse SUMO netconvert Version 1.13.0
<configuration xmlns:xsi="http://www.w3.org/2001/XMLSchema-instance" xsi:noNamespaceSchemaLocation="http://sumo.dlr.de/xsd/netconvertConfiguration.xsd">

    <input>
        <sumo-net-file value="osm.net.xml"/>
    </input>

    <output>
        <plain-output-prefix value="plain"/>
        <output.street-names value="true"/>
    </output>

    <processing>
        <geometry.min-radius.fix.railways value="false"/>
        <geometry.max-grade.fix value="false"/>
        <offset.disable-normalization value="true"/>
        <lefthand value="true"/>
    </processing>

    <junctions>
        <no-turnarounds value="true"/>
        <junctions.corner-detail value="5"/>
        <junctions.limit-turn-speed value="5.5"/>
        <rectangular-lane-cut value="false"/>
    </junctions>

    <pedestrian>
        <walkingareas value="false"/>
    </pedestrian>

    <report>
        <aggregate-warnings value="5"/>
    </report>

</configuration>
-->

<edges version="1.9" xmlns:xsi="http://www.w3.org/2001/XMLSchema-instance" xsi:noNamespaceSchemaLocation="http://sumo.dlr.de/xsd/edges_file.xsd">
    <edge id="-1029498846" from="cluster_308771859_308772132" to="7484166873" priority="3" type="highway.residential" numLanes="1" speed="13.89" shape="3237.18,3600.74 3233.97,3683.19 3229.66,3706.02 3226.49,3730.59 3215.79,3780.27 3208.69,3796.39 3157.18,3774.29" disallow="tram rail_urban rail rail_electric rail_fast ship">
        <lane index="0">
            <param key="origId" value="1029498846 800260295"/>
        </lane>
        <param key="origFrom" value="308772132"/>
    </edge>
    <edge id="-1053831742" from="9684614886" to="7485282899" priority="3" type="highway.residential" numLanes="1" speed="13.89" disallow="tram rail_urban rail rail_electric rail_fast ship">
        <lane index="0">
            <param key="origId" value="1053831742"/>
        </lane>
    </edge>
    <edge id="-1058823730" from="459515906" to="1698688821" name="Service Road" priority="4" type="highway.unclassified" numLanes="1" speed="11.11" shape="4202.14,3766.66 4177.78,3797.33 4122.24,3867.28 4093.62,3903.34" disallow="tram rail_urban rail rail_electric rail_fast ship">
        <lane index="0">
            <param key="origId" value="1058823730"/>
        </lane>
    </edge>
    <edge id="-160346394#0" from="2389190048" to="1614219932" priority="10" type="highway.tertiary" numLanes="1" speed="11.11" shape="4407.31,3442.09 4422.15,3423.19 4514.64,3307.50 4584.89,3219.64 4612.57,3185.03 4665.19,3109.18 4710.02,3053.33 4738.08,3020.45 4779.95,2965.92 4783.17,2960.48 4785.18,2952.68" disallow="tram rail_urban rail rail_electric rail_fast ship">
        <lane index="0">
            <param key="origId" value="160346394"/>
        </lane>
    </edge>
    <edge id="-160346394#1" from="2389190082" to="2389190048" priority="10" type="highway.tertiary" numLanes="1" speed="11.11" disallow="tram rail_urban rail rail_electric rail_fast ship">
        <lane index="0">
            <param key="origId" value="160346394"/>
        </lane>
    </edge>
    <edge id="-160346394#2" from="2389190064" to="2389190082" priority="10" type="highway.tertiary" numLanes="1" speed="11.11" disallow="tram rail_urban rail rail_electric rail_fast ship">
        <lane index="0">
            <param key="origId" value="160346394"/>
        </lane>
    </edge>
    <edge id="-160346394#3" from="2389190069" to="2389190064" priority="10" type="highway.tertiary" numLanes="1" speed="11.11" disallow="tram rail_urban rail rail_electric rail_fast ship">
        <lane index="0">
            <param key="origId" value="160346394"/>
        </lane>
    </edge>
    <edge id="-160346394#5" from="2389190038" to="459515615" priority="10" type="highway.tertiary" numLanes="1" speed="11.11" shape="4136.43,3787.84 4157.34,3752.75 4199.19,3712.16" disallow="tram rail_urban rail rail_electric rail_fast ship">
        <lane index="0">
            <param key="origId" value="160346394"/>
        </lane>
    </edge>
    <edge id="-160379981" from="1724275529" to="2398956407" priority="5" type="highway.tertiary_link" numLanes="1" speed="8.33" disallow="tram rail_urban rail rail_electric rail_fast ship">
        <lane index="0">
            <param key="origId" value="160379981"/>
        </lane>
    </edge>
    <edge id="-174648974#0" from="5279544115" to="308771037" name="Doddathogur Main Road" priority="10" type="highway.tertiary" numLanes="1" speed="22.22" disallow="tram rail_urban rail rail_electric rail_fast ship">
        <lane index="0">
            <param key="origId" value="174648974"/>
        </lane>
    </edge>
    <edge id="-174648974#1" from="2389190028" to="5279544115" name="Doddathogur Main Road" priority="10" type="highway.tertiary" numLanes="1" speed="22.22" disallow="tram rail_urban rail rail_electric rail_fast ship">
        <lane index="0">
            <param key="origId" value="174648974"/>
        </lane>
    </edge>
    <edge id="-174648974#10" from="7438207057" to="7484374660" name="Doddathogur Main Road" priority="10" type="highway.tertiary" numLanes="1" speed="22.22" shape="3581.89,3719.71 3493.30,3716.43 3473.45,3708.32 3469.64,3705.59" disallow="tram rail_urban rail rail_electric rail_fast ship">
        <lane index="0">
            <param key="origId" value="174648974"/>
        </lane>
    </edge>
    <edge id="-174648974#11" from="308772125" to="7438207057" name="Doddathogur Main Road" priority="10" type="highway.tertiary" numLanes="1" speed="22.22" disallow="tram rail_urban rail rail_electric rail_fast ship">
        <lane index="0">
            <param key="origId" value="174648974"/>
        </lane>
    </edge>
    <edge id="-174648974#12" from="7438207045" to="308772125" name="Doddathogur Main Road" priority="10" type="highway.tertiary" numLanes="1" speed="22.22" shape="3681.13,3731.71 3661.32,3724.44 3613.69,3720.89" disallow="tram rail_urban rail rail_electric rail_fast ship">
        <lane index="0">
            <param key="origId" value="174648974"/>
        </lane>
    </edge>
    <edge id="-174648974#13" from="7438207043" to="7438207045" name="Doddathogur Main Road" priority="10" type="highway.tertiary" numLanes="1" speed="22.22" shape="3731.63,3754.84 3693.11,3736.09 3681.13,3731.71" disallow="tram rail_urban rail rail_electric rail_fast ship">
        <lane index="0">
            <param key="origId" value="174648974"/>
        </lane>
    </edge>
    <edge id="-174648974#14" from="7438207041" to="7438207043" name="Doddathogur Main Road" priority="10" type="highway.tertiary" numLanes="2" speed="22.22" disallow="tram rail_urban rail rail_electric rail_fast ship">
        <lane index="0">
            <param key="origId" value="174648974"/>
        </lane>
        <lane index="1">
            <param key="origId" value="174648974"/>
        </lane>
    </edge>
    <edge id="-174648974#16" from="7438207039" to="7438207041" name="Doddathogur Main Road" priority="10" type="highway.tertiary" numLanes="1" speed="22.22" shape="3943.70,3812.79 3939.52,3808.29 3929.44,3805.91 3858.77,3803.19 3838.77,3801.67 3825.35,3798.06 3809.67,3792.82 3781.62,3779.17" disallow="tram rail_urban rail rail_electric rail_fast ship">
        <lane index="0">
            <param key="origId" value="174648974"/>
        </lane>
    </edge>
    <edge id="-174648974#17" from="1698688817" to="7438207039" name="Doddathogur Main Road" priority="10" type="highway.tertiary" numLanes="1" speed="22.22" shape="4069.42,3875.98 4001.54,3862.69 3963.93,3855.70 3951.65,3849.91 3947.92,3843.26 3945.49,3814.72 3943.70,3812.79" disallow="tram rail_urban rail rail_electric rail_fast ship">
        <lane index="0">
            <param key="origId" value="174648974"/>
        </lane>
    </edge>
    <edge id="-174648974#2" from="9684614886" to="2389190028" name="Doddathogur Main Road" priority="10" type="highway.tertiary" numLanes="1" speed="22.22" disallow="tram rail_urban rail rail_electric rail_fast ship">
        <lane index="0">
            <param key="origId" value="174648974"/>
        </lane>
    </edge>
    <edge id="-174648974#3" from="308772136" to="9684614886" name="Doddathogur Main Road" priority="10" type="highway.tertiary" numLanes="1" speed="22.22" shape="3107.73,3586.43 3084.47,3581.56 3074.34,3569.41 3069.19,3526.75 3072.60,3477.94" disallow="tram rail_urban rail rail_electric rail_fast ship">
        <lane index="0">
            <param key="origId" value="174648974"/>
        </lane>
    </edge>
    <edge id="-174648974#4" from="308772135" to="308772136" name="Doddathogur Main Road" priority="10" type="highway.tertiary" numLanes="1" speed="22.22" disallow="tram rail_urban rail rail_electric rail_fast ship">
        <lane index="0">
            <param key="origId" value="174648974"/>
        </lane>
    </edge>
    <edge id="-174648974#5" from="2389189944" to="308772135" name="Doddathogur Main Road" priority="10" type="highway.tertiary" numLanes="1" speed="22.22" shape="3161.45,3597.52 3143.95,3599.36 3127.24,3594.05" disallow="tram rail_urban rail rail_electric rail_fast ship">
        <lane index="0">
            <param key="origId" value="174648974"/>
        </lane>
    </edge>
    <edge id="-174648974#6" from="cluster_308771859_308772132" to="2389189944" name="Doddathogur Main Road" priority="10" type="highway.tertiary" numLanes="1" speed="22.22" shape="3214.43,3599.48 3177.23,3596.87 3161.45,3597.52" disallow="tram rail_urban rail rail_electric rail_fast ship">
        <lane index="0">
            <param key="origId" value="174648974"/>
        </lane>
        <param key="origFrom" value="308771859"/>
    </edge>
    <edge id="-174648974#8" from="7484374663" to="cluster_308771859_308772132" name="Doddathogur Main Road" priority="10" type="highway.tertiary" numLanes="1" speed="22.22" shape="3367.84,3646.21 3357.80,3640.20 3306.66,3602.53 3301.07,3600.96 3288.70,3600.03 3237.18,3600.74" disallow="tram rail_urban rail rail_electric rail_fast ship">
        <lane index="0">
            <param key="origId" value="174648974"/>
        </lane>
        <param key="origTo" value="308772132"/>
    </edge>
    <edge id="-174648974#9" from="7484374660" to="7484374663" name="Doddathogur Main Road" priority="10" type="highway.tertiary" numLanes="1" speed="22.22" shape="3469.64,3705.59 3447.89,3690.00 3406.88,3669.51 3367.84,3646.21" disallow="tram rail_urban rail rail_electric rail_fast ship">
        <lane index="0">
            <param key="origId" value="174648974"/>
        </lane>
    </edge>
    <edge id="-179129155#1" from="7487905117" to="cluster_264191653_7485257256" name="Velankani Drive" priority="10" type="highway.tertiary" numLanes="1" speed="11.11" shape="3359.16,3240.35 3358.77,3242.37 3341.87,3326.37 3341.62,3328.70" disallow="tram rail_urban rail rail_electric rail_fast ship">
        <lane index="0">
            <param key="origId" value="179129155"/>
        </lane>
        <param key="origTo" value="7485257256"/>
    </edge>
    <edge id="-179129155#3" from="3633415027" to="7487905117" name="Velankani Drive" priority="10" type="highway.tertiary" numLanes="1" speed="11.11" shape="3409.07,2973.59 3393.09,3005.08 3391.89,3011.60 3389.98,3034.64 3378.07,3110.58 3359.16,3240.35" disallow="tram rail_urban rail rail_electric rail_fast ship">
        <lane index="0">
            <param key="origId" value="179129155"/>
        </lane>
    </edge>
    <edge id="-179129155#4" from="2629764018" to="3633415027" name="Velankani Drive" priority="10" type="highway.tertiary" numLanes="1" speed="11.11" shape="3439.90,2915.94 3425.18,2941.85 3409.07,2973.59" disallow="tram rail_urban rail rail_electric rail_fast ship">
        <lane index="0">
            <param key="origId" value="179129155"/>
        </lane>
    </edge>
    <edge id="-179129155#6" from="7601422315" to="2629764018" name="Velankani Drive" priority="10" type="highway.tertiary" numLanes="1" speed="11.11" shape="3481.90,2823.92 3471.19,2849.81 3467.15,2859.60 3439.90,2915.94" disallow="tram rail_urban rail rail_electric rail_fast ship">
        <lane index="0">
            <param key="origId" value="179129155"/>
        </lane>
    </edge>
    <edge id="-179129155#7" from="264191657" to="7601422315" name="Velankani Drive" priority="10" type="highway.tertiary" numLanes="1" speed="11.11" shape="3545.90,2668.94 3536.03,2693.06 3481.90,2823.92" disallow="tram rail_urban rail rail_electric rail_fast ship">
        <lane index="0">
            <param key="origId" value="179129155"/>
        </lane>
    </edge>
    <edge id="-230171936" from="2387016575" to="2387016574" priority="3" type="highway.residential" numLanes="1" speed="13.89" disallow="tram rail_urban rail rail_electric rail_fast ship">
        <lane index="0">
            <param key="origId" value="230171936"/>
        </lane>
    </edge>
    <edge id="-230411357#0" from="7484941112" to="cluster_2389189938_7485275175" priority="3" type="highway.residential" numLanes="1" speed="13.89" shape="3204.64,3376.64 3206.59,3355.40 3210.18,3312.43 3217.47,3262.24 3215.29,3242.39" disallow="tram rail_urban rail rail_electric rail_fast ship">
        <lane index="0">
            <param key="origId" value="230411357"/>
        </lane>
        <param key="origTo" value="2389189938"/>
    </edge>
    <edge id="-230411357#1" from="2389189961" to="7484941112" priority="3" type="highway.residential" numLanes="1" speed="13.89" shape="3187.91,3465.77 3189.28,3456.35 3189.45,3439.67 3199.12,3421.65 3203.07,3393.72 3204.64,3376.64" disallow="tram rail_urban rail rail_electric rail_fast ship">
        <lane index="0">
            <param key="origId" value="230411357"/>
        </lane>
    </edge>
    <edge id="-230411357#2" from="6194036044" to="2389189961" priority="3" type="highway.residential" numLanes="1" speed="13.89" shape="3216.76,3473.88 3210.00,3473.72 3204.23,3474.95 3196.02,3479.57 3189.72,3482.84 3186.96,3482.89 3186.48,3481.18 3187.91,3465.77" disallow="tram rail_urban rail rail_electric rail_fast ship">
        <lane index="0">
            <param key="origId" value="230411357"/>
        </lane>
    </edge>
    <edge id="-230411358#0" from="cluster_2389189945_2389189957" to="2389189944" priority="3" type="highway.residential" numLanes="1" speed="13.89" shape="3167.56,3563.88 3161.45,3597.52" disallow="tram rail_urban rail rail_electric rail_fast ship">
        <lane index="0">
            <param key="origId" value="230411358"/>
        </lane>
        <param key="origFrom" value="2389189957"/>
    </edge>
    <edge id="-230411358#2" from="6194036044" to="cluster_2389189945_2389189957" priority="3" type="highway.residential" numLanes="1" speed="13.89" shape="3216.76,3473.88 3216.99,3475.90 3221.64,3480.61 3219.42,3493.54 3206.96,3507.38 3203.85,3515.97 3194.17,3536.41 3171.40,3547.98" disallow="tram rail_urban rail rail_electric rail_fast ship">
        <lane index="0">
            <param key="origId" value="230411358"/>
        </lane>
        <param key="origTo" value="2389189945"/>
    </edge>
    <edge id="-230411358#3" from="2389189951" to="6194036044" priority="3" type="highway.residential" numLanes="1" speed="13.89" disallow="tram rail_urban rail rail_electric rail_fast ship">
        <lane index="0">
            <param key="origId" value="230411358"/>
        </lane>
    </edge>
    <edge id="-230411359#0" from="2389189956" to="cluster_2389189945_2389189957" priority="3" type="highway.residential" numLanes="1" speed="13.89" shape="3157.63,3463.74 3148.88,3475.07 3147.93,3485.95 3155.00,3503.60 3162.09,3523.88 3171.40,3547.98" disallow="tram rail_urban rail rail_electric rail_fast ship">
        <lane index="0">
            <param key="origId" value="230411359"/>
        </lane>
        <param key="origTo" value="2389189945"/>
    </edge>
    <edge id="-230411359#1" from="2389189961" to="2389189956" priority="3" type="highway.residential" numLanes="1" speed="13.89" disallow="tram rail_urban rail rail_electric rail_fast ship">
        <lane index="0">
            <param key="origId" value="230411359"/>
        </lane>
    </edge>
    <edge id="-230411360" from="cluster_2389189945_2389189957" to="308772135" priority="3" type="highway.residential" numLanes="1" speed="13.89" shape="3167.56,3563.88 3127.24,3594.05" disallow="tram rail_urban rail rail_electric rail_fast ship">
        <lane index="0">
            <param key="origId" value="230411360"/>
        </lane>
        <param key="origFrom" value="2389189957"/>
    </edge>
    <edge id="-230411361#0" from="308772136" to="7484941094" name="Doddathogur and Chikkatoghuru Link Road" priority="3" type="highway.residential" numLanes="1" speed="13.89" shape="3107.73,3586.43 3108.12,3597.84 3108.75,3604.66 3111.44,3631.80 3109.76,3649.60" disallow="tram rail_urban rail rail_electric rail_fast ship">
        <lane index="0">
            <param key="origId" value="230411361 372785406"/>
        </lane>
    </edge>
    <edge id="-230411361#1" from="2389189958" to="308772136" priority="3" type="highway.residential" numLanes="1" speed="13.89" disallow="tram rail_urban rail rail_electric rail_fast ship">
        <lane index="0">
            <param key="origId" value="230411361"/>
        </lane>
    </edge>
    <edge id="-230411363" from="2389189966" to="308771031" priority="3" type="highway.residential" numLanes="1" speed="13.89" disallow="tram rail_urban rail rail_electric rail_fast ship">
        <lane index="0">
            <param key="origId" value="230411363"/>
        </lane>
    </edge>
    <edge id="-230411364#4" from="cluster_2389189969_3633415020" to="2629764018" priority="3" type="highway.residential" numLanes="1" speed="13.89" shape="3218.50,2910.88 3292.76,2907.63 3303.46,2907.16 3308.22,2907.77 3383.73,2909.40 3399.74,2909.86 3439.90,2915.94" disallow="tram rail_urban rail rail_electric rail_fast ship">
        <lane index="0">
            <param key="origId" value="230411364"/>
        </lane>
        <param key="origFrom" value="3633415020"/>
    </edge>
    <edge id="-230411364#6" from="2389189971" to="cluster_2389189969_3633415020" priority="3" type="highway.residential" numLanes="1" speed="13.89" shape="3172.61,2916.87 3182.96,2909.21 3195.56,2908.43" disallow="tram rail_urban rail rail_electric rail_fast ship">
        <lane index="0">
            <param key="origId" value="230411364"/>
        </lane>
        <param key="origTo" value="2389189969"/>
    </edge>
    <edge id="-230411364#7" from="6177899943" to="2389189971" priority="3" type="highway.residential" numLanes="1" speed="13.89" shape="3152.24,2946.58 3159.29,2944.72 3165.08,2939.60 3168.28,2931.86 3172.61,2916.87" disallow="tram rail_urban rail rail_electric rail_fast ship">
        <lane index="0">
            <param key="origId" value="230411364"/>
        </lane>
    </edge>
    <edge id="-230411364#8" from="cluster_2389189981_2389190005" to="6177899943" priority="3" type="highway.residential" numLanes="1" speed="13.89" shape="3085.80,2975.57 3091.50,2978.74 3103.54,2974.72 3111.92,2970.66 3118.78,2963.48 3130.87,2954.79 3144.12,2948.71 3152.24,2946.58" disallow="tram rail_urban rail rail_electric rail_fast ship">
        <lane index="0">
            <param key="origId" value="230411364"/>
        </lane>
        <param key="origFrom" value="2389189981"/>
    </edge>
    <edge id="-230411383#0" from="7438207070" to="2389190038" priority="3" type="highway.residential" numLanes="1" speed="13.89" disallow="tram rail_urban rail rail_electric rail_fast ship">
        <lane index="0">
            <param key="origId" value="230411383"/>
        </lane>
    </edge>
    <edge id="-230411383#1" from="2389190101" to="7438207070" priority="3" type="highway.residential" numLanes="1" speed="13.89" shape="4133.24,3642.86 4129.05,3682.23 4129.26,3685.40 4133.46,3687.36 4135.16,3691.01 4135.01,3723.47 4135.70,3754.70" disallow="tram rail_urban rail rail_electric rail_fast ship">
        <lane index="0">
            <param key="origId" value="230411383"/>
        </lane>
    </edge>
    <edge id="-230411383#2" from="cluster_2389190044_2389190063" to="2389190101" priority="3" type="highway.residential" numLanes="1" speed="13.89" shape="4132.58,3628.74 4133.24,3642.86" disallow="tram rail_urban rail rail_electric rail_fast ship">
        <lane index="0">
            <param key="origId" value="230411383"/>
        </lane>
        <param key="origFrom" value="2389190044"/>
    </edge>
    <edge id="-230411384#0" from="2389190056" to="2389190048" priority="3" type="highway.residential" numLanes="1" speed="13.89" shape="4182.18,3537.50 4197.22,3514.74 4202.03,3513.45 4210.14,3511.04 4214.79,3506.13 4216.23,3499.11 4220.41,3492.23 4258.02,3469.03 4407.31,3442.09" disallow="tram rail_urban rail rail_electric rail_fast ship">
        <lane index="0">
            <param key="origId" value="230411384"/>
        </lane>
    </edge>
    <edge id="-230411384#1" from="cluster_2389190061_2389190062" to="2389190056" priority="3" type="highway.residential" numLanes="1" speed="13.89" shape="4131.63,3555.70 4145.08,3556.21 4157.24,3552.14 4162.86,3547.23 4165.77,3544.02 4182.18,3537.50" disallow="tram rail_urban rail rail_electric rail_fast ship">
        <lane index="0">
            <param key="origId" value="230411384"/>
        </lane>
        <param key="origFrom" value="2389190061"/>
    </edge>
    <edge id="-230411384#3" from="cluster_2389190044_2389190063" to="cluster_2389190061_2389190062" priority="3" type="highway.residential" numLanes="1" speed="13.89" shape="4123.51,3618.62 4123.28,3559.34" disallow="tram rail_urban rail rail_electric rail_fast ship">
        <lane index="0">
            <param key="origId" value="230411384"/>
        </lane>
        <param key="origFrom" value="2389190063"/>
        <param key="origTo" value="2389190062"/>
    </edge>
    <edge id="-230411385" from="2389190068" to="2389190064" priority="3" type="highway.residential" numLanes="1" speed="13.89" shape="4232.74,3574.50 4281.77,3572.14 4287.16,3572.40 4291.15,3576.45 4293.08,3585.80" disallow="tram rail_urban rail rail_electric rail_fast ship">
        <lane index="0">
            <param key="origId" value="230411385"/>
        </lane>
    </edge>
    <edge id="-230411386" from="2389190070" to="2389190069" priority="3" type="highway.residential" numLanes="1" speed="13.89" disallow="tram rail_urban rail rail_electric rail_fast ship">
        <lane index="0">
            <param key="origId" value="230411386"/>
        </lane>
    </edge>
    <edge id="-230411387#0" from="2389190072" to="2389190045" priority="3" type="highway.residential" numLanes="1" speed="13.89" shape="4168.13,3634.25 4157.33,3635.79 4153.56,3639.82" disallow="tram rail_urban rail rail_electric rail_fast ship">
        <lane index="0">
            <param key="origId" value="230411387"/>
        </lane>
    </edge>
    <edge id="-230411387#1" from="2389190078" to="2389190072" priority="3" type="highway.residential" numLanes="1" speed="13.89" shape="4198.17,3608.14 4197.80,3625.52 4192.95,3630.44 4185.41,3634.18 4178.67,3635.06 4171.94,3635.18 4168.13,3634.25" disallow="tram rail_urban rail rail_electric rail_fast ship">
        <lane index="0">
            <param key="origId" value="230411387"/>
        </lane>
    </edge>
    <edge id="-230411388" from="2389190081" to="2389190056" priority="3" type="highway.residential" numLanes="1" speed="13.89" shape="4258.99,3545.36 4230.78,3540.48 4214.86,3537.45 4182.18,3537.50" disallow="tram rail_urban rail rail_electric rail_fast ship">
        <lane index="0">
            <param key="origId" value="230411388"/>
        </lane>
    </edge>
    <edge id="-230411389" from="2389190083" to="2389190082" priority="3" type="highway.residential" numLanes="1" speed="13.89" disallow="tram rail_urban rail rail_electric rail_fast ship">
        <lane index="0">
            <param key="origId" value="230411389"/>
        </lane>
    </edge>
    <edge id="-230411390" from="2389190089" to="cluster_2389190061_2389190062" priority="3" type="highway.residential" numLanes="1" speed="13.89" shape="4100.98,3468.88 4098.53,3502.64 4100.02,3509.61 4107.50,3528.78 4113.28,3539.35 4114.11,3558.51 4123.28,3559.34" disallow="tram rail_urban rail rail_electric rail_fast ship">
        <lane index="0">
            <param key="origId" value="230411390"/>
        </lane>
        <param key="origTo" value="2389190062"/>
    </edge>
    <edge id="-230411392#0" from="2389190096" to="459501915" priority="3" type="highway.residential" numLanes="1" speed="13.89" disallow="tram rail_urban rail rail_electric rail_fast ship">
        <lane index="0">
            <param key="origId" value="230411392"/>
        </lane>
    </edge>
    <edge id="-230411395" from="2389190098" to="cluster_2389190061_2389190062" priority="3" type="highway.residential" numLanes="1" speed="13.89" shape="4136.50,3491.20 4134.86,3518.58 4131.63,3555.70" disallow="tram rail_urban rail rail_electric rail_fast ship">
        <lane index="0">
            <param key="origId" value="230411395"/>
        </lane>
        <param key="origTo" value="2389190061"/>
    </edge>
    <edge id="-230411396" from="2389190100" to="2389190072" priority="3" type="highway.residential" numLanes="1" speed="13.89" shape="4174.64,3611.49 4168.01,3612.96 4168.13,3634.25" disallow="tram rail_urban rail rail_electric rail_fast ship">
        <lane index="0">
            <param key="origId" value="230411396"/>
        </lane>
    </edge>
    <edge id="-230411397#0" from="7438207074" to="2389190101" priority="3" type="highway.residential" numLanes="1" speed="13.89" shape="3971.05,3663.48 4096.02,3656.91 4104.69,3643.18 4133.24,3642.86" disallow="tram rail_urban rail rail_electric rail_fast ship">
        <lane index="0">
            <param key="origId" value="230411397"/>
        </lane>
    </edge>
    <edge id="-230411397#1" from="2389190104" to="7438207074" priority="3" type="highway.residential" numLanes="1" speed="13.89" disallow="tram rail_urban rail rail_electric rail_fast ship">
        <lane index="0">
            <param key="origId" value="230411397"/>
        </lane>
    </edge>
    <edge id="-230411398#0" from="2389190108" to="459510381" priority="3" type="highway.residential" numLanes="1" speed="13.89" disallow="tram rail_urban rail rail_electric rail_fast ship">
        <lane index="0">
            <param key="origId" value="230411398"/>
        </lane>
    </edge>
    <edge id="-230411398#1" from="cluster_2389190106_2389190110" to="2389190108" priority="3" type="highway.residential" numLanes="1" speed="13.89" shape="3960.46,3598.18 3992.52,3599.60" disallow="tram rail_urban rail rail_electric rail_fast ship">
        <lane index="0">
            <param key="origId" value="230411398"/>
        </lane>
        <param key="origFrom" value="2389190106"/>
    </edge>
    <edge id="-230411398#3" from="2389190105" to="cluster_2389190106_2389190110" priority="3" type="highway.residential" numLanes="1" speed="13.89" shape="3928.42,3594.69 3934.92,3601.13 3954.50,3599.07" disallow="tram rail_urban rail rail_electric rail_fast ship">
        <lane index="0">
            <param key="origId" value="230411398"/>
        </lane>
        <param key="origTo" value="2389190110"/>
    </edge>
    <edge id="-230411399" from="2389190107" to="cluster_2389190106_2389190110" priority="3" type="highway.residential" numLanes="1" speed="13.89" shape="3961.59,3627.14 3960.46,3598.18" disallow="tram rail_urban rail rail_electric rail_fast ship">
        <lane index="0">
            <param key="origId" value="230411399"/>
        </lane>
        <param key="origTo" value="2389190106"/>
    </edge>
    <edge id="-230411400" from="2389190109" to="2389190108" priority="3" type="highway.residential" numLanes="1" speed="13.89" disallow="tram rail_urban rail rail_electric rail_fast ship">
        <lane index="0">
            <param key="origId" value="230411400"/>
        </lane>
    </edge>
    <edge id="-230411401" from="2389190111" to="cluster_2389190106_2389190110" priority="3" type="highway.residential" numLanes="1" speed="13.89" shape="3950.78,3549.37 3954.50,3599.07" disallow="tram rail_urban rail rail_electric rail_fast ship">
        <lane index="0">
            <param key="origId" value="230411401"/>
        </lane>
        <param key="origTo" value="2389190110"/>
    </edge>
    <edge id="-231525751#1" from="459501915" to="310397568" priority="4" type="highway.unclassified" numLanes="1" speed="13.89" shape="4050.29,3373.43 4050.27,3340.48 4050.26,3315.54 4050.23,3263.67 4049.23,3257.14 4045.58,3228.91 4022.21,3165.15" disallow="tram rail_urban rail rail_electric rail_fast ship">
        <lane index="0">
            <param key="origId" value="231525751"/>
        </lane>
    </edge>
    <edge id="-231525751#2" from="459510377" to="459501915" priority="4" type="highway.unclassified" numLanes="1" speed="13.89" disallow="tram rail_urban rail rail_electric rail_fast ship">
        <lane index="0">
            <param key="origId" value="231525751"/>
        </lane>
    </edge>
    <edge id="-231525751#4" from="459510381" to="7258689373" priority="4" type="highway.unclassified" numLanes="1" speed="13.89" shape="4046.14,3593.64 4027.04,3545.29 4025.86,3526.54 4030.27,3468.51" disallow="tram rail_urban rail rail_electric rail_fast ship">
        <lane index="0">
            <param key="origId" value="231525751"/>
        </lane>
    </edge>
    <edge id="-231525751#5" from="cluster_2389190044_2389190063" to="459510381" priority="4" type="highway.unclassified" numLanes="1" speed="13.89" shape="4123.51,3618.62 4106.72,3609.11 4072.47,3602.84 4046.14,3593.64" disallow="tram rail_urban rail rail_electric rail_fast ship">
        <lane index="0">
            <param key="origId" value="231525751"/>
        </lane>
        <param key="origFrom" value="2389190063"/>
    </edge>