<?xml version="1.0" encoding="UTF-8"?>

<!-- generated on 2022-07-26 21:41:18 by Eclipse SUMO duarouter Version 1.13.0
<configuration xmlns:xsi="http://www.w3.org/2001/XMLSchema-instance" xsi:noNamespaceSchemaLocation="http://sumo.dlr.de/xsd/duarouterConfiguration.xsd">

    <input>
        <net-file value="osm.net.xml"/>
        <route-files value="trips.trips.xml"/>
    </input>

    <output>
        <output-file value="trips.trips.xml.tmp"/>
        <write-trips value="true"/>
    </output>

    <time>
        <begin value="0"/>
        <end value="3600"/>
    </time>

    <report>
        <no-warnings value="true"/>
        <ignore-errors value="true"/>
        <no-step-log value="true"/>
    </report>

</configuration>
-->

<routes xmlns:xsi="http://www.w3.org/2001/XMLSchema-instance" xsi:noNamespaceSchemaLocation="http://sumo.dlr.de/xsd/routes_file.xsd">
    <trip id="0" depart="0.00" from="-38754841#1" to="-38754833#8"/>
    <trip id="2" depart="2.00" from="174648974#11" to="-174648974#13"/>
    <trip id="3" depart="2.00" from="231525751#2" to="174648974#5"/>
    <trip id="8" depart="8.00" from="-38754835#1" to="-38754843#1"/>
    <trip id="11" depart="9.00" from="-38754839#0" to="795276269"/>
    <trip id="14" depart="13.00" from="-38754833#0" to="795276316#1"/>
    <trip id="15" depart="14.00" from="231525751#5" to="-795261068"/>
    <trip id="19" depart="16.00" from="-179129155#1" to="-230411388"/>
    <trip id="20" depart="18.00" from="-795261059" to="99713561#2"/>
    <trip id="21" depart="19.00" from="372785406#4" to="24531446#3"/>
    <trip id="23" depart="21.00" from="174648974#0" to="-364872807#2"/>
    <trip id="28" depart="26.00" from="160512744#0" to="-230411358#3"/>
    <trip id="29" depart="27.00" from="160346394#3" to="174648974#9"/>
    <trip id="35" depart="30.00" from="770164514" to="38754999"/>
    <trip id="38" depart="33.00" from="-230411384#1" to="-795536152#1"/>
    <trip id="44" depart="39.00" from="-795261053#1" to="800373053"/>
    <trip id="47" depart="43.00" from="230411383#0" to="160346394#5"/>
    <trip id="48" depart="44.00" from="795536152#0" to="-230411363"/>
    <trip id="49" depart="44.00" from="230411385" to="231525751#8"/>
    <trip id="51" depart="45.00" from="230411384#3" to="230411385"/>
    <trip id="53" depart="47.00" from="-38754990#2" to="38754833#11"/>
    <trip id="55" depart="48.00" from="-38754833#10" to="-38754837#0"/>
    <trip id="57" depart="51.00" from="38754842#3" to="-38754845#1"/>
    <trip id="58" depart="52.00" from="-230411395" to="-230411387#1"/>
    <trip id="59" depart="53.00" from="230411389" to="372785406#3"/>
    <trip id="61" depart="55.00" from="-795276321#1" to="-38754841#1"/>
    <trip id="67" depart="61.00" from="795261070" to="546326459"/>
    <trip id="68" depart="62.00" from="38753429#4" to="-38755008"/>
    <trip id="71" depart="65.00" from="38754836#8" to="-38754835#0"/>
    <trip id="72" depart="66.00" from="-38753429#11" to="-38755006"/>
    <trip id="74" depart="68.00" from="800283585" to="-364872807#2"/>
    <trip id="75" depart="69.00" from="-230411388" to="-800260296"/>
    <trip id="77" depart="70.00" from="348244562#0" to="-1029498846"/>
    <trip id="80" depart="73.00" from="-38754989#0" to="-795276285"/>
    <trip id="82" depart="76.00" from="230411358#0" to="-1029498846"/>
    <trip id="83" depart="76.00" from="-800260296" to="230411359#1"/>
    <trip id="89" depart="81.00" from="312061905#0" to="160346394#1"/>
    <trip id="92" depart="83.00" from="-38754836#1" to="38754990#1"/>
    <trip id="98" depart="92.00" from="-795276320" to="770164514"/>
    <trip id="99" depart="94.00" from="-661948162" to="38754833#4"/>
    <trip id="101" depart="97.00" from="-589691606" to="24531446#2"/>
    <trip id="102" depart="97.00" from="146496119#1" to="-230411398#3"/>
    <trip id="103" depart="98.00" from="-795261070" to="179129155#7"/>
    <trip id="105" depart="99.00" from="-795261058" to="-38754302"/>
    <trip id="107" depart="100.00" from="-230411364#4" to="-174648974#1"/>
    <trip id="108" depart="103.00" from="-174648974#1" to="-24531446#4"/>
    <trip id="109" depart="104.00" from="24354215" to="179129155#7"/>
    <trip id="114" depart="107.00" from="28109868#0" to="230411388"/>
    <trip id="115" depart="107.00" from="38754835#4" to="38754990#2"/>
    <trip id="117" depart="110.00" from="795536152#0" to="230411392#0"/>
    <trip id="119" depart="114.00" from="38754990#2" to="38754845#1"/>
    <trip id="126" depart="119.00" from="230411369" to="103269863#1"/>
    <trip id="132" depart="123.00" from="-372785406#0" to="-160346394#5"/>
    <trip id="133" depart="124.00" from="800283587" to="179129154#0"/>
    <trip id="134" depart="125.00" from="546326460" to="146496119#1"/>
    <trip id="136" depart="128.00" from="230411398#3" to="-179129155#6"/>
    <trip id="139" depart="129.00" from="174648974#6" to="-800338314"/>
    <trip id="140" depart="131.00" from="230411397#0" to="230411383#0"/>
    <trip id="142" depart="132.00" from="-358416651" to="-230411360"/>
    <trip id="143" depart="132.00" from="-99713561#0" to="230411364#7"/>
    <trip id="146" depart="138.00" from="-230411398#1" to="256682036"/>
    <trip id="147" depart="140.00" from="-174648974#5" to="-800260295#0"/>
    <trip id="150" depart="144.00" from="230411383#0" to="230411392#0"/>
    <trip id="154" depart="150.00" from="-733460034" to="38754833#9"/>
    <trip id="156" depart="152.00" from="800283586" to="230411383#0"/>
    <trip id="157" depart="152.00" from="-256682038#3" to="174648974#9"/>
    <trip id="158" depart="153.00" from="99713561#0" to="795261058"/>
    <trip id="161" depart="155.00" from="230411358#2" to="-795261058"/>
    <trip id="162" depart="156.00" from="38754836#6" to="-795276317#1"/>
    <trip id="167" depart="164.00" from="174648974#1" to="230411364#0"/>
    <trip id="168" depart="167.00" from="160346394#0" to="800260297"/>
    <trip id="170" depart="170.00" from="-230411358#3" to="230411390"/>
    <trip id="171" depart="172.00" from="230411400" to="589701037#1"/>
    <trip id="172" depart="173.00" from="38754836#9" to="-38754844#1"/>
    <trip id="174" depart="174.00" from="-230411363" to="589701037#0"/>
    <trip id="175" depart="175.00" from="795261053#1" to="-231525751#7"/>
    <trip id="178" depart="178.00" from="38754989#2" to="-38753429#3"/>
    <trip id="179" depart="179.00" from="230411364#8" to="230411358#2"/>
    <trip id="180" depart="180.00" from="800338311" to="230411400"/>
    <trip id="181" depart="180.00" from="230411364#0" to="24566729#0"/>
    <trip id="182" depart="181.00" from="230411390" to="160346394#2"/>
    <trip id="184" depart="185.00" from="-800338310" to="230411359#1"/>
    <trip id="185" depart="186.00" from="-38754845#0" to="38754833#1"/>
    <trip id="186" depart="186.00" from="-230411401" to="174648974#2"/>
    <trip id="188" depart="189.00" from="800260295#0" to="-231525751#5"/>
    <trip id="189" depart="192.00" from="179129155#4" to="-99713561#0"/>
    <trip id="193" depart="197.00" from="160512744#0" to="-230411384#1"/>
    <trip id="194" depart="198.00" from="-99713561#1" to="231525751#5"/>
    <trip id="197" depart="202.00" from="256682038#0" to="174648974#5"/>
    <trip id="199" depart="205.00" from="38754836#3" to="-38754835#6"/>
    <trip id="200" depart="205.00" from="230411363" to="-230411358#3"/>
    <trip id="211" depart="213.00" from="-230411364#4" to="230411383#0"/>
    <trip id="213" depart="214.00" from="99713561#2" to="174648974#12"/>
    <trip id="216" depart="217.00" from="-795536152#1" to="231525751#2"/>
    <trip id="217" depart="218.00" from="795261062" to="-230411358#2"/>
    <trip id="224" depart="227.00" from="-589701037#1" to="-160346394#0"/>
    <trip id="225" depart="229.00" from="230411400" to="-174648974#16"/>
    <trip id="227" depart="231.00" from="-179129155#6" to="-256682036"/>
    <trip id="228" depart="232.00" from="24354215" to="1055011759"/>
    <trip id="230" depart="233.00" from="24531446#5" to="1055011759"/>
    <trip id="231" depart="234.00" from="-795261070" to="230411368"/>
    <trip id="233" depart="235.00" from="-38754836#6" to="-38755006"/>
    <trip id="238" depart="241.00" from="38754989#2" to="-38754835#6"/>
    <trip id="240" depart="242.00" from="174648974#15" to="-230411392#0"/>
    <trip id="243" depart="249.00" from="-230411358#3" to="-800283587"/>
    <trip id="246" depart="251.00" from="38755008" to="38754996"/>
    <trip id="247" depart="254.00" from="160346394#3" to="-24531446#3"/>
    <trip id="251" depart="259.00" from="-230411384#0" to="24531446#2"/>
    <trip id="255" depart="266.00" from="-38754833#11" to="795276317#2"/>
    <trip id="256" depart="267.00" from="-231525751#4" to="-230411361#0"/>
    <trip id="257" depart="268.00" from="38754835#3" to="38754845#3"/>
    <trip id="259" depart="269.00" from="-795261053#0" to="-26676549#1"/>
    <trip id="263" depart="274.00" from="-795261059" to="174648974#10"/>
    <trip id="265" depart="276.00" from="38754989#2" to="38754991"/>
    <trip id="266" depart="277.00" from="38754835#1" to="-38754840"/>
    <trip id="268" depart="278.00" from="-99713561#0" to="-659848302"/>
    <trip id="269" depart="278.00" from="-179129155#6" to="160346394#5"/>
    <trip id="271" depart="279.00" from="795276266" to="38754846#0"/>
    <trip id="272" depart="280.00" from="-38754843#1" to="38754845#1"/>
    <trip id="273" depart="280.00" from="312061905#2" to="-800338313"/>
    <trip id="275" depart="282.00" from="-38754844#0" to="-38754845#2"/>
    <trip id="276" depart="283.00" from="-795276320" to="38754836#9"/>
    <trip id="279" depart="284.00" from="-800260295#0" to="230411384#0"/>
    <trip id="281" depart="285.00" from="800283587" to="-230411358#2"/>
    <trip id="283" depart="290.00" from="-174648974#8" to="174648974#6"/>
    <trip id="288" depart="293.00" from="38754833#11" to="-38753429#1"/>
    <trip id="291" depart="299.00" from="-230411363" to="230411401"/>
    <trip id="300" depart="310.00" from="795261059" to="146496119#1"/>
    <trip id="301" depart="310.00" from="38754991" to="-817131841"/>
    <trip id="303" depart="311.00" from="-661911647" to="-230411358#0"/>
    <trip id="307" depart="318.00" from="800283586" to="230411395"/>
    <trip id="308" depart="320.00" from="800260296" to="-800260295#0"/>
    <trip id="309" depart="321.00" from="-230411398#1" to="-24531446#4"/>
    <trip id="311" depart="323.00" from="230411401" to="174648974#9"/>
    <trip id="314" depart="326.00" from="-174648974#9" to="230411394"/>
    <trip id="316" depart="330.00" from="-230411359#1" to="-230411357#0"/>
    <trip id="321" depart="334.00" from="546326459" to="-256682038#3"/>
    <trip id="324" depart="337.00" from="-719366588" to="-179129155#3"/>
    <trip id="325" depart="342.00" from="230411358#3" to="-230411359#1"/>
    <trip id="327" depart="343.00" from="800283587" to="-795261065"/>
    <trip id="328" depart="345.00" from="174648974#13" to="160346394#4"/>
    <trip id="330" depart="347.00" from="230411392#1" to="-26676549#1"/>
    <trip id="333" depart="351.00" from="160346394#2" to="800260296"/>
    <trip id="334" depart="353.00" from="230411398#3" to="230411385"/>
    <trip id="335" depart="354.00" from="24566729#0" to="-174648974#16"/>
    <trip id="339" depart="357.00" from="24354215" to="174648974#1"/>
    <trip id="340" depart="357.00" from="-358416651" to="795261053#1"/>
    <trip id="345" depart="362.00" from="-230411397#1" to="24531446#0"/>
    <trip id="348" depart="366.00" from="230411394" to="230411362"/>
    <trip id="349" depart="366.00" from="24531446#0" to="174648974#12"/>
    <trip id="351" depart="367.00" from="38754835#3" to="-1058823730"/>
    <trip id="353" depart="371.00" from="230411369" to="174648974#15"/>
    <trip id="354" depart="372.00" from="661911647" to="-358416651"/>
    <trip id="355" depart="375.00" from="230411364#6" to="-230411387#1"/>
    <trip id="357" depart="377.00" from="-230411392#0" to="-26676549#1"/>
    <trip id="358" depart="378.00" from="-38753429#0" to="38753429#6"/>
    <trip id="359" depart="379.00" from="38754996" to="734354812"/>
    <trip id="360" depart="380.00" from="24354215" to="-372785406#3"/>
    <trip id="361" depart="381.00" from="-38754999" to="-38754835#8"/>
    <trip id="362" depart="381.00" from="-38754835#3" to="38754833#4"/>
    <trip id="365" depart="384.00" from="-230411396" to="795261059"/>
    <trip id="368" depart="387.00" from="-38754835#9" to="38754833#5"/>
    <trip id="370" depart="388.00" from="230411363" to="-230411357#1"/>
    <trip id="377" depart="400.00" from="179129155#5" to="174648974#11"/>
    <trip id="378" depart="401.00" from="-1053831742" to="-174648974#11"/>
    <trip id="379" depart="401.00" from="24531446#2" to="174648974#5"/>
    <trip id="381" depart="403.00" from="38754841#1" to="-795276318"/>
    <trip id="384" depart="405.00" from="38753429#7" to="-795276267"/>
    <trip id="387" depart="407.00" from="230411386" to="231525751#7"/>
    <trip id="392" depart="415.00" from="-38754835#7" to="-38753429#6"/>
    <trip id="393" depart="416.00" from="38753429#1" to="-38753429#1"/>
    <trip id="394" depart="416.00" from="24531446#3" to="230411368"/>
    <trip id="395" depart="417.00" from="38754834" to="38753429#10"/>
    <trip id="397" depart="419.00" from="99713561#5" to="1055011759"/>
    <trip id="399" depart="422.00" from="174648974#17" to="160346394#2"/>
    <trip id="400" depart="422.00" from="800338314" to="103269863#1"/>
    <trip id="406" depart="432.00" from="312061905#2" to="-160346394#1"/>
    <trip id="407" depart="435.00" from="230411358#3" to="-160346394#3"/>
    <trip id="408" depart="436.00" from="800338310" to="-174648974#0"/>
    <trip id="409" depart="437.00" from="-230411384#1" to="-24531446#2"/>
    <trip id="411" depart="438.00" from="-795276266" to="-736419599"/>
    <trip id="413" depart="441.00" from="-795261058" to="179129153"/>
    <trip id="414" depart="441.00" from="-160346394#2" to="-348244562#1"/>
    <trip id="415" depart="443.00" from="179129153" to="-174648974#6"/>
    <trip id="416" depart="443.00" from="546326460" to="719366588"/>
    <trip id="417" depart="444.00" from="-230411360" to="795261068"/>
    <trip id="428" depart="458.00" from="-719366588" to="-230411383#2"/>
    <trip id="431" depart="460.00" from="-795261058" to="-231525751#4"/>
    <trip id="432" depart="460.00" from="160512744#0" to="-230411357#2"/>
    <trip id="433" depart="462.00" from="-38754836#3" to="-38754835#8"/>
    <trip id="437" depart="465.00" from="-38754996" to="795276317#2"/>
    <trip id="439" depart="466.00" from="28263624#0" to="146496119#1"/>
    <trip id="441" depart="467.00" from="230411363" to="230411364#6"/>
    <trip id="443" depart="471.00" from="231525751#8" to="372785406#1"/>
    <trip id="444" depart="472.00" from="99713561#0" to="1055011759"/>
    <trip id="446" depart="477.00" from="800358827" to="24531446#0"/>
    <trip id="451" depart="484.00" from="-38754845#3" to="38754842#0"/>
    <trip id="454" depart="486.00" from="-26676549#1" to="179129155#4"/>
    <trip id="457" depart="489.00" from="38754833#10" to="38754842#0"/>
    <trip id="458" depart="489.00" from="-230411386" to="589701037#1"/>
    <trip id="461" depart="493.00" from="230411393" to="-230411364#6"/>
    <trip id="464" depart="494.00" from="-795261060" to="-372785406#5"/>
    <trip id="465" depart="497.00" from="-38754990#1" to="-817131841"/>
    <trip id="466" depart="497.00" from="-722469737#3" to="-160346394#2"/>
    <trip id="470" depart="500.00" from="-99713561#3" to="38754302"/>
    <trip id="472" depart="503.00" from="372785406#3" to="174648974#6"/>
    <trip id="473" depart="503.00" from="38754845#0" to="38754833#11"/>
    <trip id="474" depart="504.00" from="99713561#5" to="-800338314"/>
    <trip id="477" depart="507.00" from="-230411357#0" to="-661911647"/>
    <trip id="479" depart="508.00" from="-38754839#0" to="38754999"/>
    <trip id="482" depart="513.00" from="-795276317#2" to="-817131841"/>
    <trip id="486" depart="518.00" from="-38754839#1" to="38754845#0"/>
    <trip id="489" depart="521.00" from="795276321#1" to="-38753429#4"/>
    <trip id="490" depart="522.00" from="231525751#2" to="-256682036"/>
    <trip id="492" depart="524.00" from="-795276266" to="-38754845#5"/>
    <trip id="494" depart="525.00" from="160346394#4" to="-230411401"/>
    <trip id="495" depart="525.00" from="24566729#0" to="-160346394#1"/>
    <trip id="496" depart="527.00" from="-230411359#0" to="-795261058"/>
    <trip id="498" depart="528.00" from="38754835#5" to="38754833#4"/>
    <trip id="499" depart="528.00" from="99713561#1" to="-231525751#7"/>
    <trip id="500" depart="529.00" from="231525751#2" to="-800283586"/>
    <trip id="504" depart="532.00" from="230411358#3" to="230411368"/>
    <trip id="507" depart="536.00" from="174648974#0" to="230411364#7"/>
    <trip id="511" depart="542.00" from="179129155#4" to="230411384#1"/>
    <trip id="515" depart="545.00" from="-230411364#7" to="-800260296"/>
    <trip id="516" depart="546.00" from="38753429#8" to="38753429#9"/>
    <trip id="517" depart="546.00" from="348244562#0" to="28263624#0"/>
    <trip id="520" depart="548.00" from="661948162" to="38754835#5"/>
    <trip id="521" depart="548.00" from="38754841#0" to="-38754839#1"/>
    <trip id="522" depart="548.00" from="358416651" to="230411358#3"/>
    <trip id="524" depart="550.00" from="-230411386" to="230411358#2"/>
    <trip id="525" depart="551.00" from="174648974#13" to="-174648974#8"/>
    <trip id="526" depart="551.00" from="160346394#1" to="-795261058"/>
    <trip id="527" depart="552.00" from="795276266" to="38754997"/>
    <trip id="531" depart="555.00" from="1058823730" to="-38754842#2"/>
    <trip id="532" depart="556.00" from="230411358#3" to="-160346394#1"/>
    <trip id="541" depart="563.00" from="-230411384#0" to="-230411401"/>
    <trip id="542" depart="564.00" from="230411364#6" to="-800260296"/>
    <trip id="543" depart="565.00" from="-38754836#9" to="-38754990#0"/>
    <trip id="546" depart="567.00" from="-28109868#1" to="103269863#1"/>
    <trip id="547" depart="568.00" from="-38754989#0" to="-38754836#9"/>
    <trip id="548" depart="568.00" from="-256682038#3" to="24566729#0"/>
    <trip id="549" depart="569.00" from="38754845#3" to="-38755006"/>
    <trip id="550" depart="570.00" from="-38754836#1" to="-661948162"/>
    <trip id="551" depart="571.00" from="99713561#0" to="-174648974#16"/>
    <trip id="554" depart="573.00" from="38754844#1" to="-736419599"/>
    <trip id="557" depart="575.00" from="770164514" to="38754845#0"/>
    <trip id="558" depart="575.00" from="-174648974#6" to="-99713561#3"/>
    <trip id="560" depart="576.00" from="256682037" to="-348244562#2"/>
    <trip id="561" depart="577.00" from="-38753429#0" to="-38754842#0"/>
    <trip id="566" depart="582.00" from="-38754995" to="-38754833#3"/>
    <trip id="567" depart="583.00" from="99713561#0" to="174648974#11"/>
    <trip id="573" depart="590.00" from="160512744#0" to="-230411383#0"/>
    <trip id="576" depart="591.00" from="372785406#1" to="795261061"/>
    <trip id="577" depart="592.00" from="-174648974#10" to="230411362"/>
    <trip id="579" depart="595.00" from="795276317#2" to="38754836#8"/>
    <trip id="580" depart="596.00" from="800260297" to="26676549#0"/>
    <trip id="581" depart="597.00" from="230411383#2" to="-358416651"/>
    <trip id="582" depart="598.00" from="26676549#0" to="-230411398#3"/>
    <trip id="583" depart="600.00" from="230411388" to="795261062"/>
    <trip id="588" depart="604.00" from="-230411388" to="-1029498846"/>
    <trip id="589" depart="606.00" from="160346394#5" to="546326459"/>
    <trip id="591" depart="608.00" from="-38754995" to="795276319"/>
    <trip id="592" depart="608.00" from="-348244562#1" to="-777797051"/>
    <trip id="593" depart="609.00" from="230411384#3" to="230411384#0"/>
    <trip id="597" depart="612.00" from="-38754842#3" to="-38754835#3"/>
    <trip id="599" depart="612.00" from="-733460034" to="-795276321#1"/>
    <trip id="600" depart="613.00" from="24354215" to="230411368"/>
    <trip id="601" depart="613.00" from="-174648974#12" to="-348244562#1"/>
    <trip id="604" depart="614.00" from="230411357#1" to="-372785406#3"/>
    <trip id="605" depart="616.00" from="1058823730" to="-38754834"/>
    <trip id="610" depart="624.00" from="-795276321#1" to="817131841"/>
    <trip id="611" depart="626.00" from="795261053#0" to="795261058"/>
    <trip id="617" depart="633.00" from="720120467#0" to="-38755008"/>
    <trip id="618" depart="633.00" from="38754302" to="795261062"/>
    <trip id="619" depart="634.00" from="38754842#3" to="-38754845#3"/>
    <trip id="620" depart="634.00" from="160512744#0" to="28109759"/>
    <trip id="621" depart="635.00" from="546326461" to="-230411401"/>
    <trip id="623" depart="636.00" from="-38754833#0" to="38754844#2"/>
    <trip id="626" depart="639.00" from="-38753429#11" to="38754845#2"/>
    <trip id="627" depart="640.00" from="-99713561#3" to="795261060"/>
    <trip id="630" depart="642.00" from="546326461" to="230411362"/>
    <trip id="632" depart="643.00" from="-795261062" to="-28109759"/>
    <trip id="634" depart="646.00" from="795261053#0" to="230411397#0"/>
    <trip id="635" depart="647.00" from="-38754836#3" to="38754841#0"/>
    <trip id="636" depart="647.00" from="800260296" to="230411395"/>
    <trip id="637" depart="648.00" from="146496119#0" to="24531446#0"/>
    <trip id="638" depart="649.00" from="174648974#15" to="231524908#0"/>
    <trip id="639" depart="651.00" from="-230411388" to="-230411357#2"/>
    <trip id="640" depart="652.00" from="358416651" to="722469737#0"/>
    <trip id="643" depart="656.00" from="348244562#0" to="230411358#0"/>
    <trip id="644" depart="657.00" from="38753429#10" to="-38754833#8"/>
    <trip id="645" depart="660.00" from="-230411384#3" to="-230411398#3"/>
    <trip id="646" depart="660.00" from="38754841#0" to="38754835#10"/>
    <trip id="647" depart="660.00" from="24566729#0" to="-546326460"/>
    <trip id="649" depart="661.00" from="38754836#5" to="-38755007"/>
    <trip id="650" depart="661.00" from="-38754844#4" to="38754991"/>
    <trip id="653" depart="664.00" from="-38753429#4" to="-795276316#0"/>
    <trip id="657" depart="668.00" from="230411393" to="230411391"/>
    <trip id="658" depart="670.00" from="-38753429#4" to="-736419599"/>
    <trip id="659" depart="670.00" from="-38754997" to="38754845#2"/>
    <trip id="660" depart="670.00" from="24531446#4" to="230411387#1"/>
    <trip id="662" depart="671.00" from="-795261060" to="230411363"/>
    <trip id="663" depart="671.00" from="38754844#1" to="-38754845#0"/>
    <trip id="668" depart="676.00" from="655704256" to="-38754836#5"/>
    <trip id="669" depart="677.00" from="99713561#2" to="231524908#0"/>
    <trip id="671" depart="679.00" from="28263624#0" to="230411389"/>
    <trip id="672" depart="679.00" from="24354215" to="231524908#0"/>
    <trip id="673" depart="679.00" from="230411389" to="-231525751#2"/>
    <trip id="674" depart="680.00" from="372785406#3" to="-230411396"/>
    <trip id="679" depart="682.00" from="-1053831742" to="231525751#5"/>
    <trip id="681" depart="684.00" from="-38754836#6" to="-38754835#10"/>
    <trip id="693" depart="693.00" from="795261061" to="-230411390"/>
    <trip id="694" depart="693.00" from="-38754836#9" to="-38754989#2"/>
    <trip id="700" depart="703.00" from="160512745" to="230411398#1"/>
    <trip id="702" depart="704.00" from="-230411383#1" to="230411368"/>
    <trip id="704" depart="706.00" from="-38754833#9" to="-817131842"/>
    <trip id="705" depart="708.00" from="38754833#9" to="-38754833#8"/>
    <trip id="706" depart="709.00" from="174648974#6" to="28263624#0"/>
    <trip id="707" depart="710.00" from="-28109868#1" to="-231525751#5"/>
    <trip id="710" depart="715.00" from="160512745" to="174648974#12"/>
    <trip id="711" depart="715.00" from="795276268" to="38754845#6"/>
    <trip id="713" depart="717.00" from="-795261062" to="230411368"/>
    <trip id="714" depart="719.00" from="800260295#0" to="800283585"/>
    <trip id="718" depart="725.00" from="-230411395" to="-661911647"/>
    <trip id="719" depart="727.00" from="38754990#0" to="38754841#1"/>
    <trip id="720" depart="728.00" from="-24531446#0" to="231525751#4"/>
    <trip id="722" depart="728.00" from="-38754836#2" to="38754846#0"/>
    <trip id="725" depart="731.00" from="38754836#2" to="38754837#1"/>
    <trip id="727" depart="733.00" from="230411358#3" to="-160346394#3"/>
    <trip id="729" depart="737.00" from="-364872807#2" to="24531446#4"/>
    <trip id="732" depart="739.00" from="348244562#2" to="-24531446#5"/>
    <trip id="736" depart="743.00" from="-38754833#8" to="-38754833#0"/>
    <trip id="737" depart="743.00" from="-733460034" to="-38754833#3"/>
    <trip id="738" depart="745.00" from="24354215" to="-800338311"/>
    <trip id="741" depart="749.00" from="734354812" to="-38753429#10"/>
    <trip id="743" depart="751.00" from="-230411358#0" to="231525751#4"/>
    <trip id="748" depart="756.00" from="24531446#2" to="174648974#15"/>
    <trip id="752" depart="762.00" from="24531446#4" to="795261058"/>
    <trip id="754" depart="765.00" from="38754833#0" to="770164514"/>
    <trip id="755" depart="767.00" from="-38754833#8" to="38754845#3"/>
    <trip id="757" depart="770.00" from="-230411358#2" to="-230411384#1"/>
    <trip id="758" depart="771.00" from="-230411399" to="230411399"/>
    <trip id="760" depart="771.00" from="-99713561#0" to="230411384#1"/>
    <trip id="763" depart="773.00" from="-38754833#9" to="38753429#8"/>
    <trip id="764" depart="774.00" from="38753429#2" to="655800405"/>
    <trip id="765" depart="775.00" from="230411358#3" to="-358416651"/>
    <trip id="767" depart="777.00" from="-230411361#0" to="-174648974#0"/>
    <trip id="769" depart="780.00" from="38754835#4" to="38753429#4"/>
    <trip id="771" depart="783.00" from="174648974#2" to="-800338311"/>
    <trip id="773" depart="785.00" from="160512744#0" to="-230411357#2"/>
    <trip id="776" depart="789.00" from="230411357#1" to="-348244562#2"/>
    <trip id="777" depart="794.00" from="-28109868#2" to="-230411361#0"/>
    <trip id="779" depart="795.00" from="-38754835#10" to="38754842#1"/>
    <trip id="781" depart="797.00" from="-174648974#6" to="230411358#0"/>
    <trip id="782" depart="797.00" from="230411398#3" to="-174648974#4"/>
    <trip id="784" depart="799.00" from="372785406#3" to="231524908#0"/>
    <trip id="785" depart="799.00" from="-230411364#7" to="-800338314"/>
    <trip id="788" depart="803.00" from="-795261061" to="-230411388"/>
    <trip id="790" depart="804.00" from="-230411384#1" to="1053831742"/>
    <trip id="792" depart="805.00" from="160379981" to="-230411399"/>
    <trip id="794" depart="810.00" from="-231525751#1" to="1053831742"/>
    <trip id="795" depart="811.00" from="38754997" to="-38754842#2"/>
    <trip id="797" depart="812.00" from="-160346394#0" to="230411398#3"/>
    <trip id="799" depart="814.00" from="38754994" to="-795276320"/>
    <trip id="802" depart="819.00" from="-38754833#11" to="-795276266"/>
    <trip id="804" depart="821.00" from="-24531446#0" to="795261068"/>
    <trip id="806" depart="822.00" from="-795261060" to="800358827"/>
    <trip id="808" depart="825.00" from="-174648974#17" to="230411368"/>
    <trip id="809" depart="826.00" from="-348244562#1" to="-174648974#3"/>
    <trip id="810" depart="826.00" from="-1029498846" to="-256682036"/>
    <trip id="814" depart="832.00" from="-38754844#4" to="795276317#2"/>
    <trip id="815" depart="837.00" from="-230411395" to="-230411358#2"/>
    <trip id="816" depart="838.00" from="-38754990#2" to="795276321#0"/>
    <trip id="817" depart="839.00" from="38754845#1" to="-38754835#9"/>
    <trip id="822" depart="842.00" from="-38753429#7" to="-38754835#9"/>
    <trip id="823" depart="843.00" from="-230411387#1" to="795261061"/>
    <trip id="824" depart="845.00" from="160379981" to="230411385"/>
    <trip id="827" depart="849.00" from="800338310" to="28109868#0"/>
    <trip id="830" depart="851.00" from="160346394#1" to="230411383#2"/>
    <trip id="832" depart="853.00" from="-372785406#0" to="-230411400"/>
    <trip id="834" depart="854.00" from="-800260297" to="-795261053#1"/>
    <trip id="836" depart="855.00" from="174648974#0" to="99713561#2"/>
    <trip id="837" depart="857.00" from="230411362" to="230411357#0"/>
    <trip id="839" depart="860.00" from="-174648974#1" to="-230411397#1"/>
    <trip id="840" depart="861.00" from="230411369" to="230411397#1"/>
    <trip id="841" depart="861.00" from="38754835#8" to="-661948162"/>
    <trip id="842" depart="863.00" from="230411399" to="-231525751#8"/>
    <trip id="845" depart="865.00" from="-38754844#3" to="-38754837#1"/>
    <trip id="848" depart="869.00" from="-28109868#2" to="-230411386"/>
    <trip id="850" depart="870.00" from="-795276266" to="38754835#11"/>
    <trip id="852" depart="871.00" from="-38754835#9" to="-38754842#3"/>
    <trip id="854" depart="873.00" from="160346394#3" to="800283587"/>
    <trip id="855" depart="873.00" from="-800338314" to="800260297"/>
    <trip id="856" depart="874.00" from="230411386" to="230411390"/>
    <trip id="857" depart="876.00" from="-661911647" to="174648974#2"/>
    <trip id="863" depart="882.00" from="-795276321#1" to="-38754835#4"/>
    <trip id="864" depart="883.00" from="38753429#8" to="38754842#0"/>
    <trip id="867" depart="885.00" from="-179129155#3" to="174648974#15"/>
    <trip id="869" depart="887.00" from="-24531446#4" to="160346394#0"/>
    <trip id="871" depart="888.00" from="38754989#0" to="795276319"/>
    <trip id="873" depart="889.00" from="38754846#0" to="38754843#0"/>
    <trip id="874" depart="890.00" from="38754835#2" to="-38754835#9"/>
    <trip id="879" depart="895.00" from="-230411392#0" to="230411391"/>
    <trip id="883" depart="897.00" from="-256682038#3" to="-230411383#1"/>